Version 4
SHEET 1 880 680
WIRE 112 80 80 80
WIRE 240 80 192 80
WIRE -32 192 -64 192
WIRE 80 192 80 80
WIRE 80 192 48 192
WIRE 112 192 80 192
WIRE 240 208 240 80
WIRE 240 208 176 208
WIRE 320 208 240 208
WIRE 112 224 80 224
WIRE 80 256 80 224
WIRE 112 416 80 416
WIRE 240 416 192 416
WIRE -16 528 -64 528
WIRE 80 528 80 416
WIRE 80 528 48 528
WIRE 112 528 80 528
WIRE 240 544 240 416
WIRE 240 544 176 544
WIRE 320 544 240 544
WIRE 112 560 80 560
WIRE 80 592 80 560
FLAG -64 192 vin
FLAG 320 208 vout1
FLAG -304 -64 0
FLAG -304 -144 vin
FLAG 80 256 0
FLAG -64 528 vin
FLAG 320 544 vout2
FLAG 80 592 0
SYMBOL UniversalOpAmp1 144 208 R0
SYMATTR InstName U1
SYMBOL res 208 64 R90
WINDOW 0 0 56 VBottom 2
WINDOW 3 32 56 VTop 2
SYMATTR InstName R1
SYMATTR Value 5k
SYMBOL res 64 176 R90
WINDOW 0 0 56 VBottom 2
WINDOW 3 32 56 VTop 2
SYMATTR InstName R2
SYMATTR Value 1k
SYMBOL voltage -304 -160 R0
WINDOW 123 0 0 Left 0
WINDOW 39 0 0 Left 0
SYMATTR InstName V1
SYMATTR Value PULSE(-1 1 0 100m 100m 0 200m)
SYMBOL UniversalOpAmp1 144 544 R0
SYMATTR InstName U2
SYMATTR Value2 Avol=100G GBW=1000000G Vos=0
SYMATTR SpiceLine En=0 Enk=0 In=0 Ink=0 Rin=500G rout=0.001
SYMBOL res 208 400 R90
WINDOW 0 0 56 VBottom 2
WINDOW 3 32 56 VTop 2
SYMATTR InstName R3
SYMATTR Value 1k
SYMBOL cap 48 512 R90
WINDOW 0 0 32 VBottom 2
WINDOW 3 32 32 VTop 2
SYMATTR InstName C1
SYMATTR Value 1m
TEXT -336 272 Left 2 !.tran 0 400m 0 1u
